  Page 1                                    Tue Jan  3 20:59:03 2023

  ******************************************************************
  *                           E P A N E T                          *
  *                   Hydraulic and Water Quality                  *
  *                   Analysis for Pipe Networks                   *
  *                         Version 2.00.12                        *
  ******************************************************************
  
  Analysis begun Tue Jan  3 20:59:03 2023

  Analysis ended Tue Jan  3 20:59:03 2023
